Info: SIMULATION PARAMETERS:
Info: TIMESTEP               1
Info: NUMBER OF STEPS        1000
Info: STEPS PER CYCLE        20
Info: PERIODIC CELL BASIS 1  1084.16 0 0
Info: PERIODIC CELL BASIS 2  0 433.664 0
Info: PERIODIC CELL BASIS 3  0 0 433.664
Info: PERIODIC CELL CENTER   0 0 0
Info: FIRST LDB TIMESTEP     100
Info: HYBRIDLB GROUP SIZE     420
Info: LAST LDB TIMESTEP     -1
Info: HOM BACKGROUND SCALING 1
Info: PME BACKGROUND SCALING 1
Info: REMOVING LOAD FROM NODE 0
Info: REMOVING LOAD FROM NODE 1
Info: REMOVING PATCHES FROM PROCESSOR 0
Info: REMOVING PATCHES FROM PROCESSOR 1
Info: MAX SELF PARTITIONS    1
Info: MAX PAIR PARTITIONS    1
Info: SELF PARTITION ATOMS   154
Info: SELF2 PARTITION ATOMS   154
Info: PAIR PARTITION ATOMS   318
Info: PAIR2 PARTITION ATOMS  637
Info: MIN ATOMS PER PATCH    40
Info: INITIAL TEMPERATURE    298
Info: CENTER OF MASS MOVING INITIALLY? NO
Info: DIELECTRIC             1
Info: EXCLUDE                SCALED ONE-FOUR
Info: 1-4 ELECTROSTATICS SCALED BY 1
Info: MODIFIED 1-4 VDW PARAMETERS WILL BE USED
Info: NO DCD TRAJECTORY OUTPUT
Info: NO EXTENDED SYSTEM TRAJECTORY OUTPUT
Info: NO VELOCITY DCD OUTPUT
Info: NO FORCE DCD OUTPUT
Info: OUTPUT FILENAME        /gpfs/alpinetds/csc190/scratch/acun1/20stmv-output
Info: BINARY OUTPUT FILES WILL BE USED
Info: NO RESTART FILE
Info: SWITCHING ACTIVE
Info: SWITCHING ON           10
Info: SWITCHING OFF          12
Info: PAIRLIST DISTANCE      13.5
Info: PAIRLIST SHRINK RATE   0.01
Info: PAIRLIST GROW RATE     0.01
Info: PAIRLIST TRIGGER       0.3
Info: PAIRLISTS PER CYCLE    2
Info: REQUIRING 128 PROCESSORS FOR PAIRLISTS
Info: PAIRLISTS ENABLED
Info: MARGIN                 0.48
Info: HYDROGEN GROUP CUTOFF  2.5
Info: PATCH DIMENSION        16.48
Info: ENERGY OUTPUT STEPS    100
Info: CROSSTERM ENERGY INCLUDED IN DIHEDRAL
Info: TIMING OUTPUT STEPS    100
Info: LANGEVIN DYNAMICS ACTIVE
Info: LANGEVIN TEMPERATURE   298
Info: LANGEVIN USING BBK INTEGRATOR
Info: LANGEVIN DAMPING COEFFICIENT IS 5 INVERSE PS
Info: LANGEVIN DYNAMICS NOT APPLIED TO HYDROGENS
Info: LANGEVIN PISTON PRESSURE CONTROL ACTIVE
Info:        TARGET PRESSURE IS 1.01325 BAR
Info:     OSCILLATION PERIOD IS 200 FS
Info:             DECAY TIME IS 100 FS
Info:     PISTON TEMPERATURE IS 298 K
Info:       PRESSURE CONTROL IS GROUP-BASED
Info:    INITIAL STRAIN RATE IS 0 0 0
Info:       CELL FLUCTUATION IS ISOTROPIC
Info: PARTICLE MESH EWALD (PME) ACTIVE
Info: PME TOLERANCE               1e-06
Info: PME EWALD COEFFICIENT       0.257952
Info: PME INTERPOLATION ORDER     8
Info: PME GRID DIMENSIONS         540 216 216
Info: PME MAXIMUM GRID SPACING    2.1
Info: PME RECIPROCAL SUM OFFLOADED TO GPU
Info: FULL ELECTROSTATIC EVALUATION FREQUENCY      4
Info: USING VERLET I (r-RESPA) MTS SCHEME.
Info: C1 SPLITTING OF LONG RANGE ELECTROSTATICS
Info: PLACING ATOMS IN PATCHES BY HYDROGEN GROUPS
Info: RIGID BONDS TO HYDROGEN : ALL
Info:         ERROR TOLERANCE : 1e-08
Info:          MAX ITERATIONS : 100
Info: RIGID WATER USING SETTLE ALGORITHM
Info: NONBONDED FORCES EVALUATED EVERY 2 STEPS
Info: RANDOM NUMBER SEED     3141
Info: USE HYDROGEN BONDS?    NO
Info: STRUCTURE FILE         5x2x2stmv.js.inter
Info: PARAMETER file: CHARMM format!
Info: PARAMETERS             par_all27_prot_na.inp
Info: USING ARITHMETIC MEAN TO COMBINE L-J SIGMA PARAMETERS
Info: BINARY COORDINATES     5x2x2stmv.coor
Info: SUMMARY OF PARAMETERS:
Info: 250 BONDS
Info: 622 ANGLES
Info: 1049 DIHEDRAL
Info: 73 IMPROPER
Info: 0 CROSSTERM
Info: 130 VDW
Info: 0 VDW_PAIRS
Info: 0 NBTHOLE_PAIRS
Info: NONBONDED TABLE R-SQUARED SPACING: 0.0625
Info: NONBONDED TABLE SIZE: 769 POINTS
Info: Running with 50 input processors.
Info: Running with 50 output processors (50 of them will output simultaneously).
Info: INPUT PROC LOCATIONS: 14 56 70 98 154 182 238 266 280 322 ... 1666
Info: OUTPUT PROC LOCATIONS: 28 42 84 112 126 168 196 210 252 294 ... 1638
Info: LOADED 36203920 TOTAL EXCLUSIONS
Info: REMOVING COM VELOCITY -0.00445279 -0.0151658 0.00708915
Info: STRUCTURE SUMMARY:
Info: 21332560 ATOMS
Info: 15399120 BONDS
Info: 12117440 ANGLES
Info: 9017500 DIHEDRALS
Info: 491560 IMPROPERS
Info: 0 CROSSTERMS
Info: 0 EXCLUSIONS
Info: 19548320 RIGID BONDS
Info: 44449360 DEGREES OF FREEDOM
Info: 7781340 HYDROGEN GROUPS
Info: 4 ATOMS IN LARGEST HYDROGEN GROUP
Info: 7781340 MIGRATION GROUPS
Info: 4 ATOMS IN LARGEST MIGRATION GROUP
Info: TOTAL MASS = 1.33975e+08 amu
Info: TOTAL CHARGE = 0.00336207 e
Info: MASS DENSITY = 1.09115 g/cm^3
Info: ATOM DENSITY = 0.104627 atoms/A^3
Info: PME Z PENCIL LOCATIONS: 1 10 24 38 52 59 66 80 94 108 ...
Info: PME Y PENCIL LOCATIONS: 3 17 31 45 68 73 87 101 110 115 ...
Info: PME X PENCIL LOCATIONS: 12 19 26 40 54 61 82 96 103 124 ...
Info: Updated CUDA force table with 4096 elements.
Info: Updated CUDA force table with 4096 elements.
Info: Updated CUDA force table with 4096 elements.
Info: Updated CUDA force table with 4096 elements.
Info: Updated CUDA force table with 4096 elements.
Info: Updated CUDA force table with 4096 elements.
Info: Updated CUDA LJ table with 130 x 130 elements.
Info: Updated CUDA LJ table with 130 x 130 elements.
Info: Updated CUDA LJ table with 130 x 130 elements.
Info: Updated CUDA LJ table with 130 x 130 elements.
Info: Updated CUDA LJ table with 130 x 130 elements.
Info: Updated CUDA LJ table with 130 x 130 elements.
Info: Found 333 unique exclusion lists needing 1076 bytes
Info: Found 333 unique exclusion lists needing 1076 bytes
Info: Found 333 unique exclusion lists needing 1076 bytes
Info: Found 333 unique exclusion lists needing 1076 bytes
Info: Found 333 unique exclusion lists needing 1076 bytes
Info: Found 333 unique exclusion lists needing 1076 bytes
Info: Building spanning tree ... send: 1 recv: 0 with branch factor 4
Info: build node-aware spanning tree with send: 1, recv: 0 with branch factor 4
Info: build node-aware spanning tree with send: 1, recv: 0 with branch factor 4
Info: build node-aware spanning tree with send: 1, recv: 0 with branch factor 4
Info: build node-aware spanning tree with send: 1, recv: 0 with branch factor 4
Info: Built with CUDA version 9020
Info: NAMD 2.12 for Linux-POWER-pami-smp-CUDA-memopt
Info: Please visit http://www.ks.uiuc.edu/Research/namd/
Info: for updates, documentation, and support information.
Info: Please cite Phillips et al., J. Comp. Chem. 26:1781-1802 (2005)
Info: in all publications reporting results obtained with NAMD.
Info: Based on Charm++/Converse 60800 for pami-linux-ppc64le-smp
Info: Built Mon Apr 30 12:04:11 EDT 2018 by acun1 on login4
Info: 1 NAMD  2.12  Linux-POWER-pami-smp-CUDA-memopt  1680    a01n02  acun1
Info: Running on 1680 processors, 240 nodes, 40 physical nodes.
Info: CPU topology information available.
Info: Charm++/Converse parallel runtime startup completed at 2.14768 s
Info: 888.875 MB of memory in use based on /proc/self/stat
Info: Configuration file is /ccs/home/acun1/NAMD/stmv_20m/20stmv.namd
Info: Changed directory to /ccs/home/acun1/NAMD/stmv_20m
ETITLE: TS BOND ANGLE DIHED IMPRP ELECT VDW BOUNDARY MISC KINETIC TOTAL TEMP POTENTIAL TOTAL3 TEMPAVG PRESSURE GPRESSURE VOLUME PRESSAVG GPRESSAVG
ENERGY: 0 754741.3868 2114816.5493 1639005.7811 99729.7591 -82695403.0730 7511796.0004 0.0000 0.0000 13155591.1453 -57419722.4511 297.8758 -70575313.5964 -57390332.6715 297.8758 -17649.9768 2333.4337 203891970.2616 -17649.9768 2333.4337
ENERGY: 200 766466.0508 2111575.0138 1636655.0640 100785.9843 -80577908.9771 5936805.8395 0.0000 0.0000 12830603.1035 -57195017.9211 290.5173 -70025621.0246 -57166334.2882 290.9675 -19129.8433 52.4805 207090701.8593 -51.8871 -49.6745
ENERGY: 400 762765.8921 2109699.6789 1637130.7057 100884.6059 -80368841.9499 5852966.1905 0.0000 0.0000 12885537.9662 -57019856.9106 291.7611 -69905394.8767 -56991319.3486 292.2687 -19107.1980 32.6658 206942957.0390 -3.9124 -4.0517
ENERGY: 600 764939.0027 2110962.4292 1636688.3472 100761.6397 -80207704.5972 5797388.0190 0.0000 0.0000 12920408.9794 -56876556.1800 292.5507 -69796965.1594 -56848251.0025 293.0846 -19084.7160 6.8978 206936521.0598 3.1322 2.8999
ENERGY: 800 763482.2799 2109892.4728 1637726.3392 100866.1585 -80090360.5333 5764607.0335 0.0000 0.0000 12949115.1956 -56764671.0538 293.2007 -69713786.2494 -56736183.3046 293.7726 -19050.4434 2.9338 206964180.3183 0.3789 0.1879
ENERGY: 1000 763384.2234 2109270.3092 1637009.2300 100882.0721 -79993298.9753 5737862.2838 0.0000 0.0000 12976966.4739 -56667924.3830 293.8313 -69644890.8569 -56639266.0303 294.4026 -19016.2252 5.7629 206992929.6954 -0.1897 -0.4248
TCL: Suspending until startup complete.
Info: SIMULATION PARAMETERS:
Info: TIMESTEP               1
Info: NUMBER OF STEPS        1000
Info: STEPS PER CYCLE        20
Info: PERIODIC CELL BASIS 1  1084.16 0 0
Info: PERIODIC CELL BASIS 2  0 433.664 0
Info: PERIODIC CELL BASIS 3  0 0 433.664
Info: PERIODIC CELL CENTER   0 0 0
Info: FIRST LDB TIMESTEP     100
Info: HYBRIDLB GROUP SIZE     420
Info: LAST LDB TIMESTEP     -1
Info: HOM BACKGROUND SCALING 1
Info: PME BACKGROUND SCALING 1
Info: REMOVING LOAD FROM NODE 0
Info: REMOVING LOAD FROM NODE 1
Info: REMOVING PATCHES FROM PROCESSOR 0
Info: REMOVING PATCHES FROM PROCESSOR 1
Info: MAX SELF PARTITIONS    1
Info: MAX PAIR PARTITIONS    1
Info: SELF PARTITION ATOMS   154
Info: SELF2 PARTITION ATOMS   154
Info: PAIR PARTITION ATOMS   318
Info: PAIR2 PARTITION ATOMS  637
Info: MIN ATOMS PER PATCH    40
Info: INITIAL TEMPERATURE    298
Info: CENTER OF MASS MOVING INITIALLY? NO
Info: DIELECTRIC             1
Info: EXCLUDE                SCALED ONE-FOUR
Info: 1-4 ELECTROSTATICS SCALED BY 1
Info: MODIFIED 1-4 VDW PARAMETERS WILL BE USED
Info: NO DCD TRAJECTORY OUTPUT
Info: NO EXTENDED SYSTEM TRAJECTORY OUTPUT
Info: NO VELOCITY DCD OUTPUT
Info: NO FORCE DCD OUTPUT
Info: OUTPUT FILENAME        /gpfs/alpinetds/csc190/scratch/acun1/20stmv-output
Info: BINARY OUTPUT FILES WILL BE USED
Info: NO RESTART FILE
Info: SWITCHING ACTIVE
Info: SWITCHING ON           10
Info: SWITCHING OFF          12
Info: PAIRLIST DISTANCE      13.5
Info: PAIRLIST SHRINK RATE   0.01
Info: PAIRLIST GROW RATE     0.01
Info: PAIRLIST TRIGGER       0.3
Info: PAIRLISTS PER CYCLE    2
Info: REQUIRING 128 PROCESSORS FOR PAIRLISTS
Info: PAIRLISTS ENABLED
Info: MARGIN                 0.48
Info: HYDROGEN GROUP CUTOFF  2.5
Info: PATCH DIMENSION        16.48
Info: ENERGY OUTPUT STEPS    100
Info: CROSSTERM ENERGY INCLUDED IN DIHEDRAL
Info: TIMING OUTPUT STEPS    100
Info: LANGEVIN DYNAMICS ACTIVE
Info: LANGEVIN TEMPERATURE   298
Info: LANGEVIN USING BBK INTEGRATOR
Info: LANGEVIN DAMPING COEFFICIENT IS 5 INVERSE PS
Info: LANGEVIN DYNAMICS NOT APPLIED TO HYDROGENS
Info: LANGEVIN PISTON PRESSURE CONTROL ACTIVE
Info:        TARGET PRESSURE IS 1.01325 BAR
Info:     OSCILLATION PERIOD IS 200 FS
Info:             DECAY TIME IS 100 FS
Info:     PISTON TEMPERATURE IS 298 K
Info:       PRESSURE CONTROL IS GROUP-BASED
Info:    INITIAL STRAIN RATE IS 0 0 0
Info:       CELL FLUCTUATION IS ISOTROPIC
Info: PARTICLE MESH EWALD (PME) ACTIVE
Info: PME TOLERANCE               1e-06
Info: PME EWALD COEFFICIENT       0.257952
Info: PME INTERPOLATION ORDER     8
Info: PME GRID DIMENSIONS         540 216 216
Info: PME MAXIMUM GRID SPACING    2.1
Info: PME RECIPROCAL SUM OFFLOADED TO GPU
Info: FULL ELECTROSTATIC EVALUATION FREQUENCY      4
Info: USING VERLET I (r-RESPA) MTS SCHEME.
Info: C1 SPLITTING OF LONG RANGE ELECTROSTATICS
Info: PLACING ATOMS IN PATCHES BY HYDROGEN GROUPS
Info: RIGID BONDS TO HYDROGEN : ALL
Info:         ERROR TOLERANCE : 1e-08
Info:          MAX ITERATIONS : 100
Info: RIGID WATER USING SETTLE ALGORITHM
Info: NONBONDED FORCES EVALUATED EVERY 2 STEPS
Info: RANDOM NUMBER SEED     3141
Info: USE HYDROGEN BONDS?    NO
Info: STRUCTURE FILE         5x2x2stmv.js.inter
Info: PARAMETER file: CHARMM format!
Info: PARAMETERS             par_all27_prot_na.inp
Info: USING ARITHMETIC MEAN TO COMBINE L-J SIGMA PARAMETERS
Info: BINARY COORDINATES     5x2x2stmv.coor
Info: SUMMARY OF PARAMETERS:
Info: 250 BONDS
Info: 622 ANGLES
Info: 1049 DIHEDRAL
Info: 73 IMPROPER
Info: 0 CROSSTERM
Info: 130 VDW
Info: 0 VDW_PAIRS
Info: 0 NBTHOLE_PAIRS
Info: NONBONDED TABLE R-SQUARED SPACING: 0.0625
Info: NONBONDED TABLE SIZE: 769 POINTS
Info: Running with 50 input processors.
Info: Running with 50 output processors (50 of them will output simultaneously).
Info: INPUT PROC LOCATIONS: 14 56 70 98 154 182 238 266 280 322 ... 1666
Info: OUTPUT PROC LOCATIONS: 28 42 84 112 126 168 196 210 252 294 ... 1638
Info: LOADED 36203920 TOTAL EXCLUSIONS
Info: REMOVING COM VELOCITY -0.00445279 -0.0151658 0.00708915
Info: STRUCTURE SUMMARY:
Info: 21332560 ATOMS
Info: 15399120 BONDS
Info: 12117440 ANGLES
Info: 9017500 DIHEDRALS
Info: 491560 IMPROPERS
Info: 0 CROSSTERMS
Info: 0 EXCLUSIONS
Info: 19548320 RIGID BONDS
Info: 44449360 DEGREES OF FREEDOM
Info: 7781340 HYDROGEN GROUPS
Info: 4 ATOMS IN LARGEST HYDROGEN GROUP
Info: 7781340 MIGRATION GROUPS
Info: 4 ATOMS IN LARGEST MIGRATION GROUP
Info: TOTAL MASS = 1.33975e+08 amu
Info: TOTAL CHARGE = 0.00336207 e
Info: MASS DENSITY = 1.09115 g/cm^3
Info: ATOM DENSITY = 0.104627 atoms/A^3
Info: PME Z PENCIL LOCATIONS: 1 10 24 38 52 59 66 80 94 108 ...
Info: PME Y PENCIL LOCATIONS: 3 17 31 45 68 73 87 101 110 115 ...
Info: PME X PENCIL LOCATIONS: 12 19 26 40 54 61 82 96 103 124 ...
Info: Updated CUDA force table with 4096 elements.
Info: Updated CUDA force table with 4096 elements.
Info: Updated CUDA force table with 4096 elements.
Info: Updated CUDA force table with 4096 elements.
Info: Updated CUDA force table with 4096 elements.
Info: Updated CUDA force table with 4096 elements.
Info: Updated CUDA LJ table with 130 x 130 elements.
Info: Updated CUDA LJ table with 130 x 130 elements.
Info: Updated CUDA LJ table with 130 x 130 elements.
Info: Updated CUDA LJ table with 130 x 130 elements.
Info: Updated CUDA LJ table with 130 x 130 elements.
Info: Updated CUDA LJ table with 130 x 130 elements.
Info: Found 333 unique exclusion lists needing 1076 bytes
Info: Found 333 unique exclusion lists needing 1076 bytes
Info: Found 333 unique exclusion lists needing 1076 bytes
Info: Found 333 unique exclusion lists needing 1076 bytes
Info: Found 333 unique exclusion lists needing 1076 bytes
Info: Found 333 unique exclusion lists needing 1076 bytes
Info: Building spanning tree ... send: 1 recv: 0 with branch factor 4
Info: build node-aware spanning tree with send: 1, recv: 0 with branch factor 4
Info: build node-aware spanning tree with send: 1, recv: 0 with branch factor 4
Info: build node-aware spanning tree with send: 1, recv: 0 with branch factor 4
Info: build node-aware spanning tree with send: 1, recv: 0 with branch factor 4
ETITLE: TS BOND ANGLE DIHED IMPRP ELECT VDW BOUNDARY MISC KINETIC TOTAL TEMP POTENTIAL TOTAL3 TEMPAVG PRESSURE GPRESSURE VOLUME PRESSAVG GPRESSAVG
ENERGY: 0 754741.3868 2114816.5493 1639005.7811 99729.7591 -82695403.0710 7511796.0004 0.0000 0.0000 13155591.1453 -57419722.4490 297.8758 -70575313.5943 -57390332.6694 297.8758 -17649.9768 2333.4337 203891970.2616 -17649.9768 2333.4337
ENERGY: 200 767105.4714 2111090.8198 1636637.3036 100902.2980 -80579110.8281 5937021.1078 0.0000 0.0000 12829096.3245 -57197257.5031 290.4831 -70026353.8276 -57168700.9610 290.9537 -19133.8943 47.4622 207100116.4831 -51.7728 -49.5617
ENERGY: 400 762449.2894 2108898.0721 1637429.2246 100896.3105 -80364124.6365 5850835.7360 0.0000 0.0000 12885440.6778 -57018175.3261 291.7589 -69903616.0039 -56989614.0417 292.2211 -19109.5142 27.6933 206967715.3635 -4.2311 -4.3989
ENERGY: 600 765644.1955 2109257.3195 1636455.6301 101097.9147 -80216780.3846 5805176.2904 0.0000 0.0000 12918952.7765 -56880196.2578 292.5177 -69799149.0343 -56851600.3812 293.0381 -19079.9019 11.9961 206961949.1965 2.5652 2.3156
ENERGY: 800 764492.4585 2109891.0291 1637288.0146 100842.5401 -80098132.5716 5771013.6657 0.0000 0.0000 12953059.6913 -56761545.1724 293.2900 -69714604.8637 -56732973.6157 293.8446 -19045.3360 11.1287 206967030.9471 -1.1740 -1.3577
ENERGY: 1000 764401.0043 2110673.0862 1637995.2945 101023.0566 -79987818.1758 5734243.0501 0.0000 0.0000 12972087.4564 -56667395.2277 293.7208 -69639482.6842 -56638832.1116 294.4377 -19025.3646 -5.9132 207001877.0656 -0.2084 -0.4411
