Info: SIMULATION PARAMETERS:
Info: TIMESTEP               1
Info: NUMBER OF STEPS        5000
Info: STEPS PER CYCLE        20
Info: PERIODIC CELL BASIS 1  1084.16 0 0
Info: PERIODIC CELL BASIS 2  0 433.664 0
Info: PERIODIC CELL BASIS 3  0 0 433.664
Info: PERIODIC CELL CENTER   0 0 0
Info: FIRST LDB TIMESTEP     100
Info: HYBRIDLB GROUP SIZE     420
Info: LAST LDB TIMESTEP     -1
Info: HOM BACKGROUND SCALING 1
Info: PME BACKGROUND SCALING 1
Info: REMOVING LOAD FROM NODE 0
Info: REMOVING LOAD FROM NODE 1
Info: REMOVING PATCHES FROM PROCESSOR 0
Info: REMOVING PATCHES FROM PROCESSOR 1
Info: MAX SELF PARTITIONS    1
Info: MAX PAIR PARTITIONS    1
Info: SELF PARTITION ATOMS   154
Info: SELF2 PARTITION ATOMS   154
Info: PAIR PARTITION ATOMS   318
Info: PAIR2 PARTITION ATOMS  637
Info: MIN ATOMS PER PATCH    40
Info: INITIAL TEMPERATURE    298
Info: CENTER OF MASS MOVING INITIALLY? NO
Info: DIELECTRIC             1
Info: EXCLUDE                SCALED ONE-FOUR
Info: 1-4 ELECTROSTATICS SCALED BY 1
Info: MODIFIED 1-4 VDW PARAMETERS WILL BE USED
Info: NO DCD TRAJECTORY OUTPUT
Info: NO EXTENDED SYSTEM TRAJECTORY OUTPUT
Info: NO VELOCITY DCD OUTPUT
Info: NO FORCE DCD OUTPUT
Info: OUTPUT FILENAME        /gpfs/alpinetds/csc190/scratch/acun1/20stmv-output
Info: BINARY OUTPUT FILES WILL BE USED
Info: NO RESTART FILE
Info: SWITCHING ACTIVE
Info: SWITCHING ON           10
Info: SWITCHING OFF          12
Info: PAIRLIST DISTANCE      13.5
Info: PAIRLIST SHRINK RATE   0.01
Info: PAIRLIST GROW RATE     0.01
Info: PAIRLIST TRIGGER       0.3
Info: PAIRLISTS PER CYCLE    2
Info: REQUIRING 128 PROCESSORS FOR PAIRLISTS
Info: PAIRLISTS ENABLED
Info: MARGIN                 0.48
Info: HYDROGEN GROUP CUTOFF  2.5
Info: PATCH DIMENSION        16.48
Info: ENERGY OUTPUT STEPS    100
Info: CROSSTERM ENERGY INCLUDED IN DIHEDRAL
Info: TIMING OUTPUT STEPS    100
Info: LANGEVIN DYNAMICS ACTIVE
Info: LANGEVIN TEMPERATURE   298
Info: LANGEVIN USING BBK INTEGRATOR
Info: LANGEVIN DAMPING COEFFICIENT IS 5 INVERSE PS
Info: LANGEVIN DYNAMICS NOT APPLIED TO HYDROGENS
Info: LANGEVIN PISTON PRESSURE CONTROL ACTIVE
Info:        TARGET PRESSURE IS 1.01325 BAR
Info:     OSCILLATION PERIOD IS 200 FS
Info:             DECAY TIME IS 100 FS
Info:     PISTON TEMPERATURE IS 298 K
Info:       PRESSURE CONTROL IS GROUP-BASED
Info:    INITIAL STRAIN RATE IS 0 0 0
Info:       CELL FLUCTUATION IS ISOTROPIC
Info: PARTICLE MESH EWALD (PME) ACTIVE
Info: PME TOLERANCE               1e-06
Info: PME EWALD COEFFICIENT       0.257952
Info: PME INTERPOLATION ORDER     8
Info: PME GRID DIMENSIONS         540 216 216
Info: PME MAXIMUM GRID SPACING    2.1
Info: PME RECIPROCAL SUM OFFLOADED TO GPU
Info: FULL ELECTROSTATIC EVALUATION FREQUENCY      4
Info: USING VERLET I (r-RESPA) MTS SCHEME.
Info: C1 SPLITTING OF LONG RANGE ELECTROSTATICS
Info: PLACING ATOMS IN PATCHES BY HYDROGEN GROUPS
Info: RIGID BONDS TO HYDROGEN : ALL
Info:         ERROR TOLERANCE : 1e-08
Info:          MAX ITERATIONS : 100
Info: RIGID WATER USING SETTLE ALGORITHM
Info: NONBONDED FORCES EVALUATED EVERY 2 STEPS
Info: RANDOM NUMBER SEED     3141
Info: USE HYDROGEN BONDS?    NO
Info: STRUCTURE FILE         5x2x2stmv.js.inter
Info: PARAMETER file: CHARMM format!
Info: PARAMETERS             par_all27_prot_na.inp
Info: USING ARITHMETIC MEAN TO COMBINE L-J SIGMA PARAMETERS
Info: BINARY COORDINATES     5x2x2stmv.coor
Info: SUMMARY OF PARAMETERS:
Info: 250 BONDS
Info: 622 ANGLES
Info: 1049 DIHEDRAL
Info: 73 IMPROPER
Info: 0 CROSSTERM
Info: 130 VDW
Info: 0 VDW_PAIRS
Info: 0 NBTHOLE_PAIRS
Info: NONBONDED TABLE R-SQUARED SPACING: 0.0625
Info: NONBONDED TABLE SIZE: 769 POINTS
Info: Running with 50 input processors.
Info: Running with 50 output processors (50 of them will output simultaneously).
Info: INPUT PROC LOCATIONS: 14 56 70 98 154 182 238 266 280 322 ... 1666
Info: OUTPUT PROC LOCATIONS: 28 42 84 112 126 168 196 210 252 294 ... 1638
Info: LOADED 36203920 TOTAL EXCLUSIONS
Info: REMOVING COM VELOCITY -0.00445279 -0.0151658 0.00708915
Info: STRUCTURE SUMMARY:
Info: 21332560 ATOMS
Info: 15399120 BONDS
Info: 12117440 ANGLES
Info: 9017500 DIHEDRALS
Info: 491560 IMPROPERS
Info: 0 CROSSTERMS
Info: 0 EXCLUSIONS
Info: 19548320 RIGID BONDS
Info: 44449360 DEGREES OF FREEDOM
Info: 7781340 HYDROGEN GROUPS
Info: 4 ATOMS IN LARGEST HYDROGEN GROUP
Info: 7781340 MIGRATION GROUPS
Info: 4 ATOMS IN LARGEST MIGRATION GROUP
Info: TOTAL MASS = 1.33975e+08 amu
Info: TOTAL CHARGE = 0.00336207 e
Info: MASS DENSITY = 1.09115 g/cm^3
Info: ATOM DENSITY = 0.104627 atoms/A^3
Info: PME Z PENCIL LOCATIONS: 1 10 24 38 52 59 66 80 94 108 ...
Info: PME Y PENCIL LOCATIONS: 3 17 31 45 68 73 87 101 110 115 ...
Info: PME X PENCIL LOCATIONS: 12 19 26 40 54 61 82 96 103 124 ...
Info: Updated CUDA force table with 4096 elements.
Info: Updated CUDA force table with 4096 elements.
Info: Updated CUDA force table with 4096 elements.
Info: Updated CUDA force table with 4096 elements.
Info: Updated CUDA force table with 4096 elements.
Info: Updated CUDA force table with 4096 elements.
Info: Updated CUDA LJ table with 130 x 130 elements.
Info: Updated CUDA LJ table with 130 x 130 elements.
Info: Updated CUDA LJ table with 130 x 130 elements.
Info: Updated CUDA LJ table with 130 x 130 elements.
Info: Updated CUDA LJ table with 130 x 130 elements.
Info: Updated CUDA LJ table with 130 x 130 elements.
Info: Found 333 unique exclusion lists needing 1076 bytes
Info: Found 333 unique exclusion lists needing 1076 bytes
Info: Found 333 unique exclusion lists needing 1076 bytes
Info: Found 333 unique exclusion lists needing 1076 bytes
Info: Found 333 unique exclusion lists needing 1076 bytes
Info: Found 333 unique exclusion lists needing 1076 bytes
Info: Building spanning tree ... send: 1 recv: 0 with branch factor 4
Info: build node-aware spanning tree with send: 1, recv: 0 with branch factor 4
Info: build node-aware spanning tree with send: 1, recv: 0 with branch factor 4
Info: build node-aware spanning tree with send: 1, recv: 0 with branch factor 4
Info: build node-aware spanning tree with send: 1, recv: 0 with branch factor 4
Info: build node-aware spanning tree with send: 1, recv: 0 with branch factor 4
ETITLE: TS BOND ANGLE DIHED IMPRP ELECT VDW BOUNDARY MISC KINETIC TOTAL TEMP POTENTIAL TOTAL3 TEMPAVG PRESSURE GPRESSURE VOLUME PRESSAVG GPRESSAVG
ENERGY: 0 754741.3868 2114816.5493 1639005.7811 99729.7591 -82695403.0730 7511796.0004 0.0000 0.0000 13155591.1453 -57419722.4511 297.8758 -70575313.5963 -57390332.6715 297.8758 -17649.9768 2333.4337 203891970.2616 -17649.9768 2333.4337
ENERGY: 1000 765799.8356 2111054.5018 1637851.8929 101148.4603 -79988471.5534 5733076.0383 0.0000 0.0000 12985427.4125 -56654113.4120 294.0229 -69639540.8244 -56625514.3890 294.5732 -19036.1310 -16.6767 207032471.9489 0.8684 0.6682
ENERGY: 2000 764039.0658 2109231.0573 1638450.6029 101349.2224 -79687946.9257 5656302.6418 0.0000 0.0000 13059332.8903 -56359241.4452 295.6963 -69418574.3355 -56330366.6502 296.4304 -18925.5785 -11.5757 207184912.6771 2.8061 2.7410
ENERGY: 3000 763404.4242 2109335.6477 1637581.7357 100668.7518 -79576407.0482 5632469.6428 0.0000 0.0000 13091188.1967 -56241758.6493 296.4176 -69332946.8460 -56212799.1269 297.0817 -18858.9015 2.6159 207382968.9519 1.7636 1.6899
ENERGY: 4000 762957.4120 2108663.7223 1638833.6370 100885.8303 -79517486.7804 5622232.3730 0.0000 0.0000 13110046.1674 -56173867.6384 296.8446 -69283913.8058 -56144772.9233 297.5194 -18829.0745 3.1431 207500317.3174 1.4189 1.4035
ENERGY: 5000 763124.2926 2107828.9293 1639375.5547 100947.0655 -79480224.7289 5615363.5411 0.0000 0.0000 13117303.4864 -56136281.8592 297.0089 -69253585.3456 -56107395.4939 297.7902 -18811.0977 4.2169 207577352.6548 1.7072 1.6219
